Circuit: * C:\Users\Jose Lopes\Desktop\Workshopstm\Draft1.asc

Direct Newton iteration for .op point succeeded.

Date: Tue Jun 30 15:38:19 2015
Total elapsed time: 0.050 seconds.

tnom = 27
temp = 27
method = modified trap
totiter = 2099
traniter = 2096
tranpoints = 1049
accept = 1049
rejected = 0
matrix size = 5
fillins = 0
solver = Normal
Matrix Compiler1: 114 bytes object code size  0.0/0.0/[0.0]
Matrix Compiler2:      26 opcodes  0.1/[0.0]/0.1


