Circuit: * C:\Users\Jose Lopes\Desktop\Workshopstm\Draft2.asc

Direct Newton iteration for .op point succeeded.

Date: Mon Jun 29 23:42:35 2015
Total elapsed time: 0.018 seconds.

tnom = 27
temp = 27
method = modified trap
totiter = 2099
traniter = 2096
tranpoints = 1049
accept = 1049
rejected = 0
matrix size = 7
fillins = 0
solver = Normal
Matrix Compiler1: 178 bytes object code size  0.2/0.0/[0.0]
Matrix Compiler2: 427 bytes object code size  0.1/0.1/[0.1]


